@<TRIPOS>MOLECULE
C7H12O
   20    20     1     0     0
SMALL
NO_CHARGES


@<TRIPOS>ATOM
      1 C1          2.8703   -0.9617   -0.2495 C.3       1 <1>         0.0000
      2 C2          1.7125   -0.0401    0.0353 C.2       1 <1>         0.0000
      3 O1          1.9170    1.1134    0.3284 O.2       1 <1>         0.0000
      4 C3          0.2996   -0.5579   -0.0457 C.3       1 <1>         0.0000
      5 C4         -0.6774    0.5717    0.2865 C.3       1 <1>         0.0000
      6 C5         -1.6372    1.0227   -0.8164 C.3       1 <1>         0.0000
      7 C6         -2.1633    0.2178    0.3737 C.3       1 <1>         0.0000
      8 C7         -2.5585   -1.2387    0.1221 C.3       1 <1>         0.0000
      9 H1          3.8062   -0.4133   -0.1422 H         1 <1>         0.0000
     10 H2          2.8540   -1.7938    0.4545 H         1 <1>         0.0000
     11 H3          2.7881   -1.3447   -1.2667 H         1 <1>         0.0000
     12 H4          0.1037   -0.9230   -1.0538 H         1 <1>         0.0000
     13 H5          0.1696   -1.3721    0.6673 H         1 <1>         0.0000
     14 H6         -0.3004    1.3340    0.9683 H         1 <1>         0.0000
     15 H7         -1.8920    2.0816   -0.8599 H         1 <1>         0.0000
     16 H8         -1.5727    0.5146   -1.7785 H         1 <1>         0.0000
     17 H9         -2.7642    0.7471    1.1131 H         1 <1>         0.0000
     18 H10        -2.2517   -1.5301   -0.8824 H         1 <1>         0.0000
     19 H11        -2.0661   -1.8803    0.8529 H         1 <1>         0.0000
     20 H12        -3.6394   -1.3434    0.2166 H         1 <1>         0.0000
@<TRIPOS>BOND
     1    1    2 1
     2    2    3 2
     3    2    4 1
     4    4    5 1
     5    5    6 1
     6    6    7 1
     7    5    7 1
     8    7    8 1
     9    1    9 1
    10    1   10 1
    11    1   11 1
    12    4   12 1
    13    4   13 1
    14    5   14 1
    15    6   15 1
    16    6   16 1
    17    7   17 1
    18    8   18 1
    19    8   19 1
    20    8   20 1
